#!/bin/bash

## Prototype of modli cli and mod manager.

#########REQUIREMENTS############
#-(Un)Install to stage files    #
#-Set and launch stage file     #
#-Different install engines     #
#################################

##modli [OPTIONS] [GAME] [FILE]	
. ~/bin/data/modli/options
GAME=$4
MOD=$5
mod=${MOD%.*} #formatted name without extension	

if [ $GAME==$Fallout4 ]; then
	GAMEPATH="$GAMES/Fallout 4"
	MODPATH="$GAMEPATH/Mods"
	ENGINE=~/bin/data/modli/ModManagers/Fallout4.mm
-+fi
. $ENGINE

#echo "$GAMEPATH"
#echo $MODPATH
#echo $GAME $MOD
	

